** written by FreeCAD inp file writer for CalculiX,Abaqus meshes
** highest dimension mesh elements only.

** Nodes
*Node, NSET=Nall
1, 0, 0, 0
2, 0, 0, 3.5
3, 240, 0, 0
4, 240, 0, 3.5
5, 240, 42, 0
6, 240, 42, 3.5
7, 0, 42, 0
8, 0, 42, 3.5
9, 0, 0, 1.75
10, 0, 0, 0.875
11, 0, 0, 2.625
12, 240, 0, 1.75
13, 240, 0, 0.875
14, 240, 0, 2.625
15, 2.181818181818, 0, 0
16, 4.363636363636, 0, 0
17, 6.545454545455, 0, 0
18, 8.727272727273, 0, 0
19, 10.90909090909, 0, 0
20, 13.09090909091, 0, 0
** ... 36067 like lines cut


** Volume elements
*Element, TYPE=C3D10, ELSET=Evolumes
12613, 2673, 15489, 4734, 14852, 24233, 24232, 6633, 24234, 17400, 24235
12614, 15535, 15489, 4734, 24183, 22824, 24232, 24236, 24238, 24237, 24239
12615, 5016, 16020, 3236, 4591, 24241, 24240, 12464, 9289, 24242, 12460
12616, 4279, 3330, 5142, 15909, 13004, 13003, 5367, 24244, 24243, 24245
12617, 15232, 3230, 4468, 15235, 24247, 12417, 24246, 17358, 24248, 24249
12618, 14022, 3264, 15597, 14205, 24251, 24250, 23387, 23386, 24252, 19358
12619, 14007, 15500, 4738, 3473, 23286, 24253, 24254, 24256, 24255, 13280
12620, 3640, 14407, 24172, 24189, 24259, 24257, 24258, 24261, 24260, 24262
12621, 15597, 3264, 4843, 14205, 24250, 12656, 24263, 19358, 24252, 24264
12622, 2673, 4734, 4096, 14852, 6633, 6632, 6630, 24234, 24235, 24265
12623, 14502, 4872, 3106, 15630, 24267, 11427, 24266, 16055, 24268, 24269
12624, 14222, 15489, 15535, 24183, 24038, 22824, 24037, 24270, 24237, 24238
12625, 4778, 4734, 3470, 24183, 12079, 13268, 13267, 24271, 24239, 24272
12626, 4968, 2865, 3598, 15734, 8944, 8947, 8948, 24274, 24273, 24275
12627, 5039, 14013, 15838, 5161, 24277, 23326, 24276, 12565, 24278, 24279
12628, 13999, 4803, 15219, 15766, 24281, 24280, 23235, 23233, 24282, 17044
12629, 3226, 15549, 4790, 4087, 24284, 24283, 12387, 12388, 24285, 5662
12630, 15315, 13859, 3106, 15320, 22133, 24286, 24287, 22141, 22140, 24288
12631, 5245, 4605, 14220, 15365, 8617, 24289, 24290, 24292, 24291, 21553
12632, 15366, 16007, 4606, 14219, 19329, 24293, 24294, 21542, 24026, 24295
** ... 17816 like lines cut

** Define element set Eall
*ELSET, ELSET=Eall
Evolumes



***********************************************************
** Element sets for materials and FEM element type (solid, shell, beam, fluid)
** written by write_element_sets_material_and_femelement_type function
*ELSET,ELSET=SolidMaterialSolid
Evolumes

***********************************************************
** Node sets for fixed constraint
** written by write_node_sets_constraints_fixed function
** FemConstraintFixed
*NSET,NSET=FemConstraintFixed
1024,
1,
2,
1027,
1028,
1029,
1030,
7,
8,
9,
10,
11,
1036,
1026,
1038,
1039,
1040,
1041,
1042,
1043,
** ... 197 like lines cut

***********************************************************
** Materials
** written by write_materials function
** Young's modulus unit is MPa = N/mm2
** Density's unit is t/mm^3
** FreeCAD material name: Aluminum 6061-T6
** SolidMaterial
*MATERIAL, NAME=SolidMaterial
*ELASTIC
69000, 0.330
*DENSITY
2.700e-09

***********************************************************
** Sections
** written by write_femelementsets function
*SOLID SECTION, ELSET=SolidMaterialSolid, MATERIAL=SolidMaterial

***********************************************************
** At least one step is needed to run an CalculiX analysis of FreeCAD
** written by write_step_begin function
*STEP
*STATIC


***********************************************************
** Fixed Constraints
** written by write_constraints_fixed function
** FemConstraintFixed
*BOUNDARY
FemConstraintFixed,1
FemConstraintFixed,2
FemConstraintFixed,3


***********************************************************
** Self weight Constraint
** written by write_constraints_selfweight function
** ConstraintSelfWeight
*DLOAD
Eall,GRAV,9810,0.0,0.0,-1.0


***********************************************************
** Node loads Constraints
** written by write_constraints_force function
*CLOAD
** FemConstraintForce
** node loads on shape: Pad:Face2
3,3,-0.0000000000000E+00
4,3,-0.0000000000000E+00
5,3,-0.0000000000000E+00
6,3,-0.0000000000000E+00
12,3,-0.0000000000000E+00
13,3,-8.1250000000000E-02
14,3,-4.8179995410863E-02
453,3,-0.0000000000000E+00
454,3,-8.1250000000000E-02
455,3,-4.8179995410863E-02
456,3,-0.0000000000000E+00
457,3,-0.0000000000000E+00
458,3,-0.0000000000000E+00
459,3,-0.0000000000000E+00
460,3,-0.0000000000000E+00
461,3,-0.0000000000000E+00
462,3,-0.0000000000000E+00
463,3,-0.0000000000000E+00
464,3,-0.0000000000000E+00
465,3,-0.0000000000000E+00
** ... 197 like lines cut



***********************************************************
** Outputs --> frd file
** written by write_outputs_types function
*NODE FILE
U
*EL FILE
S, E

***********************************************************
** written by write_step_end function
*END STEP 

***********************************************************
** CalculiX Input file
** written by write_footer function
**   written by    --> FreeCAD 0.18.4 (GitTag)
**   written on    --> Fri Mar 11 09:53:38 2022
**   file name     --> 
**   analysis name --> Analysis
**
**
**
**   Units
**
**   Geometry (mesh data)        --> mm
**   Materials (Young's modulus) --> N/mm2 = MPa
**   Loads (nodal loads)         --> N
**
