** written by FreeCAD inp file writer for CalculiX,Abaqus meshes
** highest dimension mesh elements only.

** Nodes
*Node, NSET=Nall
1, 0, 0, 0
2, 0, 0, 3.5
3, 240, 0, 0
4, 240, 0, 3.5
5, 240, 42, 0
6, 240, 42, 3.5
7, 0, 42, 0
8, 0, 42, 3.5
9, 0, 0, 1.75
10, 0, 0, 0.875
11, 0, 0, 2.625
12, 240, 0, 1.75
13, 240, 0, 0.875
14, 240, 0, 2.625
15, 2.181818181818, 0, 0
16, 4.363636363636, 0, 0
17, 6.545454545455, 0, 0
18, 8.727272727273, 0, 0
19, 10.90909090909, 0, 0
20, 13.09090909091, 0, 0
** ... 36085 like lines cut


** Volume elements
*Element, TYPE=C3D10, ELSET=Evolumes
12613, 14852, 2673, 4734, 15489, 24236, 6633, 24235, 17400, 24237, 24238
12614, 4734, 15535, 15489, 24185, 24239, 22824, 24238, 24241, 24240, 24242
12615, 5016, 16020, 3236, 4591, 24244, 24243, 12464, 9289, 24245, 12460
12616, 15909, 4279, 5142, 14091, 24247, 5367, 24246, 23754, 24248, 24249
12617, 4468, 4469, 15232, 3230, 6601, 24250, 24251, 12417, 12416, 24252
12618, 15597, 3264, 14205, 14022, 24254, 24253, 19358, 23387, 24255, 23386
12619, 3473, 15500, 14007, 4738, 24257, 23286, 24256, 13280, 24258, 24259
12620, 4843, 3264, 14205, 15597, 12656, 24253, 24260, 24261, 24254, 19358
12621, 2673, 4734, 4096, 14852, 6633, 6632, 6630, 24236, 24235, 24262
12622, 14502, 4872, 3106, 15630, 24264, 11427, 24263, 16055, 24265, 24266
12623, 4778, 4734, 3470, 24185, 12079, 13268, 13267, 24267, 24241, 24268
12624, 15489, 15535, 14222, 24185, 22824, 24037, 24038, 24242, 24240, 24269
12625, 3598, 2865, 15734, 4968, 8947, 24270, 24271, 8948, 8944, 24272
12626, 5039, 14013, 15838, 5161, 24274, 23326, 24273, 12565, 24275, 24276
12627, 13999, 4803, 15219, 15766, 24278, 24277, 23235, 23233, 24279, 17044
12628, 3226, 15549, 4790, 4087, 24281, 24280, 12387, 12388, 24282, 5662
12629, 15315, 13859, 3106, 15320, 22133, 24283, 24284, 22141, 22140, 24285
12630, 5245, 4605, 14220, 15365, 8617, 24286, 24287, 24289, 24288, 21553
12631, 14219, 15366, 4606, 16007, 21542, 24290, 24291, 24026, 19329, 24292
12632, 5142, 4279, 3330, 14091, 5367, 13004, 13003, 24249, 24248, 24293
** ... 17828 like lines cut

** Define element set Eall
*ELSET, ELSET=Eall
Evolumes



***********************************************************
** Element sets for materials and FEM element type (solid, shell, beam, fluid)
** written by write_element_sets_material_and_femelement_type function
*ELSET,ELSET=SolidMaterialSolid
Evolumes

***********************************************************
** Node sets for fixed constraint
** written by write_node_sets_constraints_fixed function
** FemConstraintFixed
*NSET,NSET=FemConstraintFixed
1024,
1,
2,
1027,
1028,
1029,
1030,
7,
8,
9,
10,
11,
1036,
1026,
1038,
1039,
1040,
1041,
1042,
1043,
** ... 197 like lines cut

***********************************************************
** Materials
** written by write_materials function
** Young's modulus unit is MPa = N/mm2
** Density's unit is t/mm^3
** FreeCAD material name: Aluminum 6061-T6
** SolidMaterial
*MATERIAL, NAME=SolidMaterial
*ELASTIC
69000, 0.330
*DENSITY
2.700e-09

***********************************************************
** Sections
** written by write_femelementsets function
*SOLID SECTION, ELSET=SolidMaterialSolid, MATERIAL=SolidMaterial

***********************************************************
** At least one step is needed to run an CalculiX analysis of FreeCAD
** written by write_step_begin function
*STEP
*STATIC


***********************************************************
** Fixed Constraints
** written by write_constraints_fixed function
** FemConstraintFixed
*BOUNDARY
FemConstraintFixed,1
FemConstraintFixed,2
FemConstraintFixed,3


***********************************************************
** Self weight Constraint
** written by write_constraints_selfweight function
** ConstraintSelfWeight
*DLOAD
Eall,GRAV,9810,0.0,0.0,-1.0


***********************************************************
** Node loads Constraints
** written by write_constraints_force function
*CLOAD
** FemConstraintForce
** node loads on shape: Pad:Face2
3,3,-0.0000000000000E+00
4,3,-0.0000000000000E+00
5,3,-0.0000000000000E+00
6,3,-0.0000000000000E+00
12,3,-0.0000000000000E+00
13,3,-8.1250000000000E-02
14,3,-4.8179995410863E-02
453,3,-0.0000000000000E+00
454,3,-8.1250000000000E-02
455,3,-4.8179995410863E-02
456,3,-0.0000000000000E+00
457,3,-0.0000000000000E+00
458,3,-0.0000000000000E+00
459,3,-0.0000000000000E+00
460,3,-0.0000000000000E+00
461,3,-0.0000000000000E+00
462,3,-0.0000000000000E+00
463,3,-0.0000000000000E+00
464,3,-0.0000000000000E+00
465,3,-0.0000000000000E+00
** ... 197 like lines cut



***********************************************************
** Outputs --> frd file
** written by write_outputs_types function
*NODE FILE
U
*EL FILE
S, E

***********************************************************
** written by write_step_end function
*END STEP 

***********************************************************
** CalculiX Input file
** written by write_footer function
**   written by    --> FreeCAD 0.18.4 (GitTag)
**   written on    --> Fri Mar 11 13:14:28 2022
**   file name     --> 
**   analysis name --> Analysis
**
**
**
**   Units
**
**   Geometry (mesh data)        --> mm
**   Materials (Young's modulus) --> N/mm2 = MPa
**   Loads (nodal loads)         --> N
**
