** written by FreeCAD inp file writer for CalculiX,Abaqus meshes
** highest dimension mesh elements only.

** Nodes
*Node, NSET=Nall
1, 0, 0, 0
2, 0, 0, 3.5
3, 240, 0, 0
4, 240, 0, 3.5
5, 240, 42, 0
6, 240, 42, 3.5
7, 0, 42, 0
8, 0, 42, 3.5
9, 0, 0, 1.75
10, 0, 0, 0.875
11, 0, 0, 2.625
12, 240, 0, 1.75
13, 240, 0, 0.875
14, 240, 0, 2.625
15, 2, 0, 0
16, 4, 0, 0
17, 6, 0, 0
18, 8, 0, 0
19, 10, 0, 0
20, 12, 0, 0
** ... 44590 like lines cut


** Volume elements
*Element, TYPE=C3D10, ELSET=Evolumes
15069, 3067, 18227, 5777, 29064, 29230, 29229, 9402, 29232, 29231, 29233
15070, 5543, 18929, 3134, 6017, 29235, 29234, 10189, 10196, 29236, 10194
15071, 3364, 4016, 4791, 17929, 12740, 12739, 12738, 29238, 29237, 29239
15072, 18623, 18653, 16021, 29057, 21220, 21215, 21221, 29241, 29240, 29242
15073, 3975, 3117, 5593, 29077, 9992, 9994, 9993, 29244, 29243, 29245
15074, 3866, 5809, 4958, 29027, 15731, 15402, 15730, 29247, 29246, 29248
15075, 5427, 4904, 17785, 29182, 8920, 29249, 29250, 29252, 29251, 29253
15076, 18713, 16794, 18111, 4489, 28431, 28430, 20734, 29255, 29254, 29256
15077, 18391, 3535, 16588, 17482, 29258, 29257, 27265, 20011, 29259, 27264
15078, 18963, 5698, 18210, 16400, 29261, 29260, 25602, 25601, 29262, 25597
15079, 17920, 18812, 5423, 29165, 25293, 29263, 29264, 29266, 29265, 29267
15080, 17989, 3559, 5650, 17859, 29269, 14367, 29268, 25944, 29270, 29271
15081, 17759, 18667, 16239, 4563, 23815, 23803, 23809, 29273, 29272, 29274
15082, 5680, 5006, 3872, 17704, 9092, 15744, 15745, 29276, 29275, 29277
15083, 3882, 16456, 5883, 29070, 29279, 29278, 15766, 29281, 29280, 29282
15084, 5095, 19116, 16795, 3195, 29284, 28435, 29283, 10904, 29285, 29286
15085, 17263, 6038, 5536, 16816, 29288, 10288, 29287, 21043, 29289, 29290
15086, 18455, 5181, 4963, 29005, 29292, 7512, 29291, 29294, 29293, 29295
15087, 3780, 16608, 17781, 29034, 29297, 27407, 29296, 29299, 29298, 29300
15088, 4694, 18275, 16959, 4693, 29302, 24460, 29301, 12210, 29303, 29304
** ... 22375 like lines cut

** Define element set Eall
*ELSET, ELSET=Eall
Evolumes



***********************************************************
** Element sets for materials and FEM element type (solid, shell, beam, fluid)
** written by write_element_sets_material_and_femelement_type function
*ELSET,ELSET=SolidMaterialSolid
Evolumes

***********************************************************
** Node sets for fixed constraint
** written by write_node_sets_constraints_fixed function
** FemConstraintFixed
*NSET,NSET=FemConstraintFixed
1,
2,
7,
8,
9,
10,
11,
1059,
1060,
1061,
1062,
1063,
1064,
1065,
1066,
1067,
1068,
1069,
1070,
1071,
** ... 207 like lines cut

***********************************************************
** Materials
** written by write_materials function
** Young's modulus unit is MPa = N/mm2
** Density's unit is t/mm^3
** FreeCAD material name: Aluminum 6061-T6
** SolidMaterial
*MATERIAL, NAME=SolidMaterial
*ELASTIC
69000, 0.330
*DENSITY
2.700e-09

***********************************************************
** Sections
** written by write_femelementsets function
*SOLID SECTION, ELSET=SolidMaterialSolid, MATERIAL=SolidMaterial

***********************************************************
** At least one step is needed to run an CalculiX analysis of FreeCAD
** written by write_step_begin function
*STEP
*STATIC


***********************************************************
** Fixed Constraints
** written by write_constraints_fixed function
** FemConstraintFixed
*BOUNDARY
FemConstraintFixed,1
FemConstraintFixed,2
FemConstraintFixed,3


***********************************************************
** Self weight Constraint
** written by write_constraints_selfweight function
** ConstraintSelfWeight
*DLOAD
Eall,GRAV,9810,0.0,0.0,-1.0


***********************************************************
** Node loads Constraints
** written by write_constraints_force function
*CLOAD
** FemConstraintForce
** node loads on shape: Pad:Face2
3,3,-0.0000000000000E+00
4,3,-0.0000000000000E+00
5,3,-0.0000000000000E+00
6,3,-0.0000000000000E+00
12,3,-0.0000000000000E+00
13,3,-5.9196303237848E-02
14,3,-5.2467230690625E-02
493,3,-0.0000000000000E+00
494,3,-5.9196303237848E-02
495,3,-5.2467230690625E-02
496,3,-0.0000000000000E+00
497,3,-0.0000000000000E+00
498,3,-0.0000000000000E+00
499,3,-0.0000000000000E+00
500,3,-0.0000000000000E+00
501,3,-0.0000000000000E+00
502,3,-0.0000000000000E+00
503,3,-0.0000000000000E+00
504,3,-0.0000000000000E+00
505,3,-0.0000000000000E+00
** ... 207 like lines cut



***********************************************************
** Outputs --> frd file
** written by write_outputs_types function
*NODE FILE
U
*EL FILE
S, E

***********************************************************
** written by write_step_end function
*END STEP 

***********************************************************
** CalculiX Input file
** written by write_footer function
**   written by    --> FreeCAD 0.18.4 (GitTag)
**   written on    --> Fri Mar 11 13:08:39 2022
**   file name     --> 
**   analysis name --> Analysis
**
**
**
**   Units
**
**   Geometry (mesh data)        --> mm
**   Materials (Young's modulus) --> N/mm2 = MPa
**   Loads (nodal loads)         --> N
**
